/*--------------------------------*- C++ -*----------------------------------*\
  =========                 |
  \\      /  F ield         | OpenFOAM: The Open Source CFD Toolbox
   \\    /   O peration     | Website:  https://openfoam.org
    \\  /    A nd           | Version:  dev
     \\/     M anipulation  |
\*---------------------------------------------------------------------------*/
FoamFile
{
    version         2;
    format          ascii;
    class           dictionary;
    location        "system";
    object          fvSolution;
}
// * * * * * * * * * * * * * * * * * * * * * * * * * * * * * * * * * * * * * //

solvers
{
    T
    {
        solver          PBiCG;
        smoother        GaussSeidel;
        tolerance       1e-07;
        relTol          1e-05;
        preconditioner  DILU;
    }
}

SIMPLE
{
    nNonOrthogonalCorrectors 0;
}

solvers.T.preconditioner More;


// ************************************************************************* //
